Circuit: * C:\Users\dinui\OneDrive\Desktop\temaelth\schimbare_sucu.asc

Direct Newton iteration for .op point succeeded.

Date: Thu May 27 11:31:55 2021
Total elapsed time: 0.071 seconds.

tnom = 27
temp = 27
method = trap
totiter = 3
traniter = 0
tranpoints = 0
accept = 0
rejected = 0
matrix size = 8
fillins = 6
solver = Normal
Matrix Compiler1: 548 bytes object code size
Matrix Compiler2: 656 bytes object code size
